/*--------------------------------*- C++ -*----------------------------------*\
| =========                 |                                                 |
| \\      /  F ield         | OpenFOAM: The Open Source CFD Toolbox           |
|  \\    /   O peration     | Version:  2.1.x                                 |
|   \\  /    A nd           | Web:      www.OpenFOAM.org                      |
|    \\/     M anipulation  |                                                 |
\*---------------------------------------------------------------------------*/
FoamFile
{
    version     2.0;
    format      ascii;
    class       dictionary;
    object      createPatchDict;
}

pointSync false;

patches
(
    {
	name FRONT_CYC; 
        patchInfo
        {
            type cyclic;
            neighbourPatch BACK_CYC;
            matchTolerance 1E-2;
        }
        constructFrom patches;
        patches (FRONT);
    }

    {
        name BACK_CYC;
        patchInfo
        {
            type cyclic;
            neighbourPatch FRONT_CYC;
	    matchTolerance 1E-2;
        }
        constructFrom patches;
        patches (BACK);
    }
);
